output/compact_ny_2025/electrical_fixed_peak/S4_2025_HIGH_NYC_LI_LOAD_PUBLIC/audit_branch.csv
branch_row,device_key,from_bus,to_bus,online,rate_a_mva,from_mva,to_mva,from_overload_mva,to_overload_mva,angle_deg,angle_min_deg,angle_max_deg,angle_below_min_deg,angle_above_max_deg,violated,invalid_limit_bounds,stored_terminal_flow_error_mva,stored_terminal_flow_inconsistent
1,NPCC_S7:BRANCH_ROW:33,37,38,1,2500,43.8714577756085,16.7519309034417,0,0,0.108457681994876,-360,360,0,0,0,0,9.76996261670138e-14,0
2,NPCC_S7:BRANCH_ROW:34,37,39,1,3388,778.798078572491,773.39094227415,0,0,2.75875153038968,-360,360,0,0,0,0,1.17185710042169e-13,0
3,NPCC_S7:BRANCH_ROW:35,37,40,1,2500,55.4603408357322,59.3119108958315,0,0,-0.70294978002204,-360,360,0,0,0,0,2.86428933843956e-14,0
4,NPCC_S7:BRANCH_ROW:36,37,43,0,3745.98196383403,0,0,0,0,-4.76575073367456,-360,360,0,0,0,0,0,0
5,NPCC_S7:BRANCH_ROW:37,38,69,1,1216,22.9922896931969,93.6540674403445,0,0,-0.629859627187683,-360,360,0,0,0,0,0,0
6,NPCC_S7:BRANCH_ROW:38,39,73,1,2500,605.744154213342,601.017671099714,0,0,5.33983044110914,-360,360,0,0,0,0,2.29143147075165e-13,0
7,NPCC_S7:BRANCH_ROW:39,39,73,1,2500,605.744154213342,601.017671099714,0,0,5.33983044110914,-360,360,0,0,0,0,2.29143147075165e-13,0
8,NPCC_S7:BRANCH_ROW:40,40,44,0,1328.76341358641,0,0,0,0,-5.15270033072348,-360,360,0,0,0,0,0,0
9,NPCC_S7:BRANCH_ROW:41,41,42,1,2500,355.514446258538,357.681210851735,0,0,-1.35725970752873,-360,360,0,0,0,0,6.35528743231302e-14,0
10,NPCC_S7:BRANCH_ROW:42,41,45,1,314.254622579561,22.7547655225983,34.9315047390849,0,0,-2.31054819717305,-360,360,0,0,0,0,3.97205464519564e-15,0
11,NPCC_S7:BRANCH_ROW:43,43,44,1,2500,264.654228385687,260.368349355798,0,0,-1.08989937707096,-360,360,0,0,0,0,1.98951966012828e-13,0
12,NPCC_S7:BRANCH_ROW:44,43,50,1,3463.47124449306,113.565126533976,139.744638673985,0,0,-1.4143984273382,-360,360,0,0,0,0,1.4210854715202e-14,0
13,NPCC_S7:BRANCH_ROW:45,43,50,1,3463.47124449306,113.565126533976,139.744638673985,0,0,-1.4143984273382,-360,360,0,0,0,0,1.4210854715202e-14,0
14,NPCC_S7:BRANCH_ROW:46,44,45,1,2500,380.098032981184,370.147815717781,0,0,3.69224222531871,-360,360,0,0,0,0,1.72882509170285e-13,0
15,NPCC_S7:BRANCH_ROW:47,44,48,0,6896.14528055676,0,0,0,0,-28.9296261763665,-360,360,0,0,0,0,0,0
16,NPCC_S7:BRANCH_ROW:48,45,46,1,2040.85471944324,114.756945380188,110.117049457576,0,0,-24.966094162535,-360,360,0,0,0,0,0,0
17,NPCC_S7:BRANCH_ROW:49,45,51,1,489.56239109923,68.868819434374,66.7394715236209,0,0,-1.916942494618,-360,360,0,0,0,0,1.4238583238574e-14,0
18,NPCC_S7:BRANCH_ROW:50,45,71,1,166.495119914644,8.50492365087993,4.55182117540028,0,0,0.0539228497728991,-360,360,0,0,0,0,4.91558061539388e-14,0
19,NPCC_S7:BRANCH_ROW:51,46,47,1,2500,117.274616534861,116.843722547545,0,0,-10.9865105942259,-360,360,0,0,0,0,7.105427357601e-15,0
20,NPCC_S7:BRANCH_ROW:52,46,49,1,2500,24.4995519539722,23.1719844432324,0,0,-3.1794537316072,-360,360,0,0,0,0,3.5527136788005e-15,0
21,NPCC_S7:BRANCH_ROW:53,47,48,1,2500,567.797854798423,693.974239623676,0,0,3.33073635507571,-360,360,0,0,0,0,1.17185710042169e-13,0
22,NPCC_S7:BRANCH_ROW:54,50,51,1,2500,868.443298929629,733.931816301524,0,0,2.09979878096794,-360,360,0,0,0,0,2.8421709430404e-14,0
23,NPCC_S7:BRANCH_ROW:55,50,52,1,2858.06690137886,344.789416284788,404.76892388327,0,0,3.34320953303699,-360,360,0,0,0,0,2.8421709430404e-14,0
24,NPCC_S7:BRANCH_ROW:56,51,53,1,290.964700741948,81.7856986665515,73.8143825264989,0,0,7.53268370952504,-360,360,0,0,0,0,1.46482137552712e-14,0
25,NPCC_S7:BRANCH_ROW:57,51,72,1,2500,82.0822614461664,84.8955881192919,0,0,-1.37852558183717,-360,360,0,0,0,0,3.5527136788005e-15,0
26,NPCC_S7:BRANCH_ROW:58,52,53,1,2500,302.674594074447,310.839480371976,0,0,6.289272957456,-360,360,0,0,0,0,0,0
27,NPCC_S7:BRANCH_ROW:59,53,55,1,997.983883346124,66.2348466001656,80.9853098749999,0,0,-4.22007371633466,-360,360,0,0,0,0,7.94410929039127e-15,0
28,NPCC_S7:BRANCH_ROW:60,53,65,1,785.968397879188,168.422461477514,149.897337019935,0,0,-1.63802307282366,-360,360,0,0,0,0,2.8421709430404e-14,0
29,NPCC_S7:BRANCH_ROW:61,54,56,1,789.941803,163.574073754033,162.392605272119,0,0,0.284604282589026,-360,360,0,0,0,0,6.82269040007543e-13,0
30,NPCC_S7:BRANCH_ROW:62,54,62,1,789.941803,61.7360566099366,55.1135645461073,0,0,2.02647861765969,-360,360,0,0,0,0,1.75778565063254e-13,0
31,NPCC_S7:BRANCH_ROW:65,55,57,1,789.941803,66.6887328425254,66.5933713956255,0,0,1.07631853622307,-360,360,0,0,0,0,1.00485917355762e-14,0
32,NPCC_S7:BRANCH_ROW:66,55,59,1,789.941803,68.9663600363806,68.6061535650254,0,0,0.964871633430563,-360,360,0,0,0,0,1.4210854715202e-14,0
33,NPCC_S7:BRANCH_ROW:67,56,58,1,2500,189.595511993753,187.974538315721,0,0,1.77430358079792,-360,360,0,0,0,0,2.92964275105423e-14,0
34,NPCC_S7:BRANCH_ROW:68,57,59,1,2500,51.0031283795027,51.960569811341,0,0,-0.11144690279251,-360,360,0,0,0,0,7.1607233460989e-15,0
35,NPCC_S7:BRANCH_ROW:69,58,60,1,2500,62.924084829694,69.2094339498861,0,0,-1.38437503243407,-360,360,0,0,0,0,4.32206272925713e-14,0
36,NPCC_S7:BRANCH_ROW:70,58,62,1,2500,16.7739289138881,14.1682555440298,0,0,-0.032429245727252,-360,360,0,0,0,0,3.5527136788005e-15,0
37,NPCC_S7:BRANCH_ROW:71,59,61,1,2500,31.4277599377196,32.2355242005628,0,0,-2.76293249843192,-360,360,0,0,0,0,3.58036167304945e-15,0
38,NPCC_S7:BRANCH_ROW:73,62,63,1,620,61.9707472031122,52.7618522683928,0,0,2.09681394391764,-360,360,0,0,0,0,7.105427357601e-15,0
39,NPCC_S7:BRANCH_ROW:74,63,64,1,2500,78.0531390330422,76.3074638445604,0,0,1.65538213063708,-360,360,0,0,0,0,7.105427357601e-15,0
40,NPCC_S7:BRANCH_ROW:75,63,67,1,2500,90.6188292325231,78.5313681165565,0,0,-0.716406374443647,-360,360,0,0,0,0,0,0
41,NPCC_S7:BRANCH_ROW:76,64,65,1,2500,79.9918146715785,78.131568468563,0,0,-0.851556446702639,-360,360,0,0,0,0,0,0
42,NPCC_S7:BRANCH_ROW:77,64,68,1,2500,57.0906692357477,53.8605269506351,0,0,-2.59369143342353,-360,360,0,0,0,0,1.00485917355762e-14,0
43,NPCC_S7:BRANCH_ROW:78,66,67,1,2500,26.8281998560448,26.6848546757665,0,0,0.00664186172895342,-360,360,0,0,0,0,7.105427357601e-15,0
44,NPCC_S7:BRANCH_ROW:79,66,69,1,2500,66.3584266766891,60.8680155049913,0,0,-0.808838281742332,-360,360,0,0,0,0,7.94410929039127e-15,0
45,NPCC_S7:BRANCH_ROW:81,67,68,1,2500,63.8457105182603,65.5685982031513,0,0,-0.221902928342801,-360,360,0,0,0,0,7.32410687763558e-15,0
46,NPCC_S7:BRANCH_ROW:82,67,70,1,2500,43.9433636165416,49.8290018449498,0,0,-1.36232673930405,-360,360,0,0,0,0,7.105427357601e-15,0
47,NPCC_S7:BRANCH_ROW:84,68,71,1,2500,26.2795290925036,32.8546167560305,0,0,-2.18166030558959,-360,360,0,0,0,0,1.11617562579351e-13,0
48,NPCC_S7:BRANCH_ROW:85,69,71,1,2500,126.260659583699,122.477770604593,0,0,-1.58808309046111,-360,360,0,0,0,0,7.53711367802687e-13,0
49,NPCC_S7:BRANCH_ROW:86,70,71,1,2500,49.8290018449486,49.231344630663,0,0,-1.04123649462834,-360,360,0,0,0,0,3.76654676321623e-13,0
50,NPCC_S7:BRANCH_ROW:87,71,72,1,2500,1127.53854910656,979.256274321216,0,0,-3.34939092622807,-360,360,0,0,0,0,1.74885916895858e-12,0
51,NPCC_S7:BRANCH_ROW:88,73,74,0,1599.84337349398,0,0,0,0,4.48202143988179,-360,360,0,0,0,0,0,0
52,NPCC_S7:BRANCH_ROW:89,73,74,0,1599.84337349398,0,0,0,0,4.48202143988179,-360,360,0,0,0,0,0,0
53,NPCC_S7:BRANCH_ROW:90,74,77,1,2500,166.313047766505,166.962053624301,0,0,-0.347886971520808,-360,360,0,0,0,0,2.86428933843956e-14,0
54,NPCC_S7:BRANCH_ROW:91,74,78,1,2889.50495049505,651.16089607271,648.295928235504,0,0,1.42471191720855,-360,360,0,0,0,0,3.15724129836754e-12,0
55,NPCC_S7:BRANCH_ROW:92,74,78,1,2889.50495049505,651.16089607271,648.295928235504,0,0,1.42471191720855,-360,360,0,0,0,0,3.15724129836754e-12,0
56,NPCC_S7:BRANCH_ROW:94,76,77,0,4611.31325301205,0,0,0,0,0.698955511083849,-360,360,0,0,0,0,0,0
57,NPCC_S7:BRANCH_ROW:95,78,79,0,908.848753535103,0,0,0,0,1.4469690364123,-360,360,0,0,0,0,0,0
58,NPCC_S7:BRANCH_ROW:96,78,80,1,984.654731457801,349.836205595451,324.983322180873,0,0,5.07296296229541,-360,360,0,0,0,0,1.70530256582424e-13,0
59,NPCC_S7:BRANCH_ROW:97,78,81,0,503.818330764024,0,0,0,0,-0.0483225029839023,-360,360,0,0,0,0,0,0
60,NPCC_S7:BRANCH_ROW:98,78,82,1,451.473569126203,148.078503191467,150.010853123817,0,0,2.07338359878678,-360,360,0,0,0,0,3.88725975613793e-13,0
61,NPCC_S7:BRANCH_ROW:219,40,41,1,2500,108.838815899575,108.761912963037,0,0,0.850090091768281,-360,360,0,0,0,0,2.84355838317334e-14,0
62,NPCC_S7:BRANCH_ROW:220,49,48,1,2500,64.6147163343613,67.2075906896936,0,0,-4.476320507543,-360,360,0,0,0,0,7.105427357601e-15,0
63,NPCC_S7:BRANCH_ROW:222,54,52,1,4583.01611665388,307.50160369293,332.648104391936,0,0,0.275868360879442,-360,360,0,0,0,0,6.8545281030107e-13,0
64,NPCC_S7:BRANCH_ROW:223,54,55,1,2500,663.223052724744,721.895582878268,0,0,2.34506760200078,-360,360,0,0,0,0,1.25055521493778e-12,0
65,NPCC_S7:BRANCH_ROW:224,56,57,1,2500,46.122393849687,48.1618932675407,0,0,3.13678185563483,-360,360,0,0,0,0,7.94410929039127e-15,0
66,NPCC_S7:BRANCH_ROW:225,58,59,1,2500,220.861170758685,221.775490484247,0,0,1.2510313720444,-360,360,0,0,0,0,2.8421709430404e-14,0
67,NPCC_S7:BRANCH_ROW:226,60,61,1,2500,43.8019459428259,45.1406053516883,0,0,-0.127526093953449,-360,360,0,0,0,0,4.44089209850063e-16,0
68,NPCC_S7:BRANCH_ROW:227,75,76,1,2500,42.9409596714737,42.9426759482325,0,0,-0.154116233831369,-360,360,0,0,0,0,7.78952863239566e-13,0
69,NPCC_S7:BRANCH_ROW:234,38,39,1,1216,280.213848203785,281.860882434914,0,0,2.6502938483948,-360,360,0,0,0,0,1.13700714662494e-13,0
70,NPCC_S7:BRANCH_ROW:235,73,9002,0,2432,0,0,0,0,2.35061594653451,-360,360,0,0,0,0,0,0
71,NPCC_S7:BRANCH_ROW:236,9002,74,0,2432,0,0,0,0,2.13140549334728,-360,360,0,0,0,0,0,0
72,NPCC_S7:BRANCH_ROW:237,74,78,1,866.851485148515,195.902047045425,195.605278243421,0,0,1.42471191720855,-360,360,0,0,0,0,1.15500568867389e-12,0
73,NPCC_S7:BRANCH_ROW:238,77,78,1,650.138613861386,182.684451475047,182.406489787897,0,0,1.77259888872936,-360,360,0,0,0,0,5.96075588457676e-13,0
74,NPCC_S7:BRANCH_ROW:239,78,81,0,1158.78216075726,0,0,0,0,-0.0483225029839023,-360,360,0,0,0,0,0,0
75,NPCC_S7:BRANCH_ROW:240,78,79,0,1390.53859290871,0,0,0,0,1.4469690364123,-360,360,0,0,0,0,0,0
76,NPCC_S7:BRANCH_ROW:241,78,82,1,1390.53859290871,455.323037497047,461.264773952654,0,0,2.07338359878678,-360,360,0,0,0,0,1.18692543184245e-12,0
77,NPCC_S7:BRANCH_ROW:242,78,9003,1,2865.3452685422,510.619838590258,467.010830582919,0,0,0.919756160054304,-360,360,0,0,0,0,5.2407042729174e-13,0
78,NPCC_S7:BRANCH_ROW:243,9003,80,1,5000,572.931106593907,519.222670642022,0,0,4.15320680224111,-360,360,0,0,0,0,1.60777467769219e-13,0
79,NPCC_S7:BRANCH_ROW:244,81,80,1,2950,589.534281844275,507.440026157964,0,0,5.12128546527931,-360,360,0,0,0,0,1.13686837721616e-13,0
80,NPCC_S7:BRANCH_ROW:245,39,9001,1,5000,197.635322604649,197.582339029986,0,0,3.31811896467075,-360,360,0,0,0,0,2.86428933843956e-14,0
81,NPCC_S7:BRANCH_ROW:246,9001,73,0,5000,0,0,0,0,2.02171147643838,-360,360,0,0,0,0,0,0
82,PERFORM2019:AC:651:858:1,73,858,1,1216,392.624386306893,391.445293727576,0,0,1.00075602515671,-360,360,0,0,0,0,5.72857867687912e-14,0
83,PERFORM2019:AC:651:858:2,73,858,1,1216,392.624439554562,391.445254383769,0,0,1.00075602515671,-360,360,0,0,0,0,3.5527136788005e-15,0
84,PERFORM2019:AC:651:902:1,73,9002,1,1216,393.385460871413,390.994349065578,0,0,2.35061594653451,-360,360,0,0,0,0,6.01080938469374e-14,0
85,PERFORM2019:AC:651:902:2,73,9002,1,1216,393.385513639638,390.994329067005,0,0,2.35061594653451,-360,360,0,0,0,0,5.6843418860808e-14,0
86,PERFORM2019:AC:858:902:1,858,9002,1,1216,391.445313399812,390.204218545839,0,0,1.3498599213778,-360,360,0,0,0,0,3.5527136788005e-15,0
87,PERFORM2019:AC:858:902:2,858,9002,1,1216,391.4452347122,390.20425901537,0,0,1.3498599213778,-360,360,0,0,0,0,5.81875502595579e-14,0
88,PERFORM2019:AC:897:902:1,9002,74,1,1216,781.198793673527,779.78333795281,0,0,2.13140549334728,-360,360,0,0,0,0,1.13908665908592e-13,0
89,PERFORM2019:AC:897:902:2,9002,74,1,1216,781.198330992874,779.784005679036,0,0,2.13140549334728,-360,360,0,0,0,0,1.14571573537582e-13,0
90,PERFORM2019:AC:774:1519:1,76,774,1,1216,177.960423840512,176.767446545716,0,0,0.236929856756911,-360,360,0,0,0,0,2.86428933843956e-14,0
91,PERFORM2019:AC:774:900:1,774,77,1,1725,176.767446545716,175.384882430184,0,0,0.462025654326938,-360,360,0,0,0,0,2.8421709430404e-14,0
92,PERFORM2019:AC:900:1519:1,76,77,1,1725,176.453023148721,173.838430679086,0,0,0.698955511083849,-360,360,0,0,0,0,2.92964275105423e-14,0
93,NY2025:CEEC:351,43,9101,1,2000,248.044744919894,229.196751841562,0,0,2.99546562225981,-360,360,0,0,0,0,2.8421709430404e-14,0
94,NY2025:CEEC:352,43,9101,1,2000,248.044744919894,229.196751841562,0,0,2.99546562225981,-360,360,0,0,0,0,2.8421709430404e-14,0
95,NY2025:CEEC:361,9101,37,1,2000,359.98331826061,356.484371018013,0,0,1.77028511141475,-360,360,0,0,0,0,5.72857867687912e-14,0
96,NY2025:CEEC:362,9101,37,1,2000,359.98331826061,356.484371018013,0,0,1.77028511141475,-360,360,0,0,0,0,5.72857867687912e-14,0
97,NY2025:CEEC:14,43,9102,1,2000,215.607805308422,194.615088196512,0,0,2.74782001818677,-360,360,0,0,0,0,2.86428933843956e-14,0
98,NY2025:CEEC:371,9101,9102,1,2000,262.53863884478,263.795838072395,0,0,-0.24764560407304,-360,360,0,0,0,0,7.95839584076996e-13,0
99,NY2025:CEEC:LEGACY230:1,40,9103,1,1328.76341358641,157.389077072456,162.781076544979,0,0,-2.07632044559338,-360,360,0,0,0,0,1.13908665908592e-13,0
100,NY2025:CEEC:LEGACY230:2,9103,44,1,1328.76341358641,237.984508324028,243.954660722524,0,0,-3.07637988513009,-360,360,0,0,0,0,1.98951966012828e-13,0
101,NY2025:CEEC:GORDON_XFMR,9102,9103,1,1200,79.3379012793922,78.5403967770513,0,0,-0.761339510127636,-360,360,0,0,0,0,1.00485917355762e-14,0
102,NY2025:NYES:1,9001,9104,1,1800,197.582339029986,196.841647166567,0,0,0.826775757854964,-360,360,0,0,0,0,3.12994075102324e-12,0
103,NY2025:NYES:2,9104,73,1,1800,196.841647166569,200.97543511543,0,0,1.19493571858342,-360,360,0,0,0,0,1.56187330464301e-12,0
104,NY2025:SMART_PATH:1,1220,48,1,575,326.457054448702,337.742021872006,0,0,-18.0168437996321,-360,360,0,0,0,0,5.78339886065028e-14,0
105,NY2025:SMART_PATH:2,1220,48,1,575,326.363548315247,337.647545813567,0,0,-18.0168437996321,-360,360,0,0,0,0,1.14185345125777e-13,0
106,NY2025:SMART_PATH:3,1220,44,1,453,326.410301380517,323.276778902018,0,0,10.9127823767344,-360,360,0,0,0,0,1.24090954021291e-13,0
107,NY2025:SMART_PATH:4,1220,44,1,453,326.410301380517,323.276778902018,0,0,10.9127823767344,-360,360,0,0,0,0,1.24090954021291e-13,0
108,NY2025:NYC:DELIVERY:95:1,78,1130,1,908.848753535103,207.79520515118,208.92081129379,0,0,0.705662685685699,-360,360,0,0,0,0,1.59674620578046e-12,0
109,NY2025:NYC:DELIVERY:95:2,1130,79,1,908.848753535103,234.320790422595,236.099631692989,0,0,0.741306350726605,-360,360,0,0,0,0,5.6843418860808e-14,0
110,NY2025:NYC:DELIVERY:240:1,78,557,1,1390.53859290871,317.841602556963,319.589901115283,0,0,0.70464677885408,-360,360,0,0,0,0,3.88130676834257e-12,0
111,NY2025:NYC:DELIVERY:240:2,557,79,1,1390.53859290871,357.348844206001,360.031702144581,0,0,0.742322257558223,-360,360,0,0,0,0,1.60903026138819e-12,0
112,NY2025:NYC:DELIVERY:97:1,78,1129,1,503.818330764024,153.019590138306,150.278520805704,0,0,-0.00137152537034169,-360,360,0,0,0,0,1.13914344579424e-12,0
113,NY2025:NYC:DELIVERY:97:2,1129,81,1,503.818330764024,160.66194848815,157.531717952144,0,0,-0.0469509776135606,-360,360,0,0,0,0,7.99360577730113e-15,0
114,NY2025:NYC:DELIVERY:239:1,78,1129,1,1158.78216075726,351.370905108726,345.076730542636,0,0,-0.00137152537034169,-360,360,0,0,0,0,2.28971225219968e-12,0
115,NY2025:NYC:DELIVERY:239:2,1129,81,1,1158.78216075726,368.919654050758,361.731868907423,0,0,-0.0469509776135606,-360,360,0,0,0,0,5.95543334264911e-14,0
116,NY2025:NYC:RAINEY_XFMR,1130,1529,1,1500,34.1147492241496,33.8186433169523,0,0,-0.19288272913613,-360,360,0,0,0,0,7.94410929039127e-15,0
117,NY2025:NYC:ASTORIA_XFMR,557,1493,1,1500,48.7747705802087,48.3110502544465,0,0,-0.217771174632921,-360,360,0,0,0,0,1.87891200513624e-13,0
118,NY2025:NYC:CORONA_BASELINE,1493,601,1,2248,48.3110502544662,61.7941053619016,0,0,-0.013420447273603,-360,360,0,0,0,0,1.4210854715202e-14,0
119,NY2025:RCC_QUEENS:CABLE,1529,601,1,300,33.8186433169547,37.4395623532847,0,0,-0.0393247996020119,-360,360,0,0,0,0,7.105427357601e-15,0
120,NY2025:RCC_BROOKLYN:PAR,1129,9112,1,300,39.8496977307631,40.2017979152642,0,0,0.32740989406518,-360,360,0,0,0,0,3.5527136788005e-15,0
121,NY2025:RCC_BROOKLYN:CABLE,9112,9111,1,300,40.2017979152862,39.6518783066891,0,0,0.00954779918000703,-360,360,0,0,0,0,0,0
122,NY2025:RCC_STATEN:PAR,81,9113,1,300,75.6861537781982,77.2336775191571,0,0,0.221001928665419,-360,360,0,0,0,0,1.4210854715202e-14,0
123,NY2025:RCC_STATEN:CABLE,9113,9114,1,300,77.2336775191538,71.7854774228125,0,0,0.0805193887238271,-360,360,0,0,0,0,7.58419083860441e-13,0
124,NY2025:NYC:GREENWOOD_CORONA,9111,601,1,600,103.679203631628,99.215301500279,0,0,0.137868989072711,-360,360,0,0,0,0,1.58882185807825e-14,0
125,NY2025:NYC:FOX_GREENWOOD,9114,9111,1,600,71.7854774228164,65.7641837150348,0,0,0.0823873534695014,-360,360,0,0,0,0,7.63975949301613e-13,0
